<?xml version="1.0" encoding="UTF-8"?>

<!-- generated on 2022-06-17 15:06:59 by Eclipse SUMO netedit Version 1.13.0
-->

<routes xmlns:xsi="http://www.w3.org/2001/XMLSchema-instance" xsi:noNamespaceSchemaLocation="http://sumo.dlr.de/xsd/routes_file.xsd">


<vType id="HV" length="5" carFollowModel="Krauss" minGap="2.5" tau="1" accel="2.6" decel="4.5" emergencyDecel="4.5" sigma="0.5" />

<flow	id=	"f_1"	departLane="best"	type="HV"	from=	"1"	to=	"-1"	begin="0"	end="600"	probability=	"0.00076923"	/>
<flow	id=	"f_2"	departLane="best"	type="HV"	from=	"2"	to=	"-1"	begin="0"	end="600"	probability=	"0.00076923"	/>
<flow	id=	"f_3"	departLane="best"	type="HV"	from=	"3"	to=	"-1"	begin="0"	end="600"	probability=	"0.00076923"	/>
<flow	id=	"f_4"	departLane="best"	type="HV"	from=	"4"	to=	"-1"	begin="0"	end="600"	probability=	"0.00076923"	/>
<flow	id=	"f_5"	departLane="best"	type="HV"	from=	"5"	to=	"-1"	begin="0"	end="600"	probability=	"0.00076923"	/>
<flow	id=	"f_6"	departLane="best"	type="HV"	from=	"6"	to=	"-1"	begin="0"	end="600"	probability=	"0.00076923"	/>
<flow	id=	"f_7"	departLane="best"	type="HV"	from=	"7"	to=	"-1"	begin="0"	end="600"	probability=	"0.00076923"	/>
<flow	id=	"f_8"	departLane="best"	type="HV"	from=	"8"	to=	"-1"	begin="0"	end="600"	probability=	"0.00076923"	/>
<flow	id=	"f_9"	departLane="best"	type="HV"	from=	"9"	to=	"-1"	begin="0"	end="600"	probability=	"0.00076923"	/>
<flow	id=	"f_10"	departLane="best"	type="HV"	from=	"10"	to=	"-1"	begin="0"	end="600"	probability=	"0.00076923"	/>
<flow	id=	"f_11"	departLane="best"	type="HV"	from=	"11"	to=	"-1"	begin="0"	end="600"	probability=	"0.00076923"	/>
<flow	id=	"f_12"	departLane="best"	type="HV"	from=	"12"	to=	"-1"	begin="0"	end="600"	probability=	"0.00076923"	/>
<flow	id=	"f_13"	departLane="best"	type="HV"	from=	"13"	to=	"-1"	begin="0"	end="600"	probability=	"0.00076923"	/>
<flow	id=	"f_14"	departLane="best"	type="HV"	from=	"14"	to=	"-1"	begin="0"	end="600"	probability=	"0.00076923"	/>
<flow	id=	"f_15"	departLane="best"	type="HV"	from=	"15"	to=	"-1"	begin="0"	end="600"	probability=	"0.00076923"	/>
<flow	id=	"f_16"	departLane="best"	type="HV"	from=	"16"	to=	"-1"	begin="0"	end="600"	probability=	"0.000000000001"	/>
<flow	id=	"f_17"	departLane="best"	type="HV"	from=	"17"	to=	"-1"	begin="0"	end="600"	probability=	"0.000000000001"	/>
<flow	id=	"f_18"	departLane="best"	type="HV"	from=	"18"	to=	"-1"	begin="0"	end="600"	probability=	"0.00076923"	/>
<flow	id=	"f_19"	departLane="best"	type="HV"	from=	"19"	to=	"-1"	begin="0"	end="600"	probability=	"0.000000000001"	/>
<flow	id=	"f_20"	departLane="best"	type="HV"	from=	"20"	to=	"-1"	begin="0"	end="600"	probability=	"0.000000000001"	/>
<flow	id=	"f_21"	departLane="best"	type="HV"	from=	"21"	to=	"-1"	begin="0"	end="600"	probability=	"0.000000000001"	/>
<flow	id=	"f_22"	departLane="best"	type="HV"	from=	"22"	to=	"-1"	begin="0"	end="600"	probability=	"0.000000000001"	/>
<flow	id=	"f_23"	departLane="best"	type="HV"	from=	"23"	to=	"-1"	begin="0"	end="600"	probability=	"0.000000000001"	/>
<flow	id=	"f_24"	departLane="best"	type="HV"	from=	"24"	to=	"-1"	begin="0"	end="600"	probability=	"0.000000000001"	/>
<flow	id=	"f_25"	departLane="best"	type="HV"	from=	"25"	to=	"-1"	begin="0"	end="600"	probability=	"0.000000000001"	/>
<flow	id=	"f_26"	departLane="best"	type="HV"	from=	"26"	to=	"-1"	begin="0"	end="600"	probability=	"0.00076923"	/>
<flow	id=	"f_27"	departLane="best"	type="HV"	from=	"27"	to=	"-1"	begin="0"	end="600"	probability=	"0.00076923"	/>
<flow	id=	"f_28"	departLane="best"	type="HV"	from=	"28"	to=	"-1"	begin="0"	end="600"	probability=	"0.00076923"	/>
<flow	id=	"f_29"	departLane="best"	type="HV"	from=	"29"	to=	"-1"	begin="0"	end="600"	probability=	"0.000000000001"	/>
<flow	id=	"f_30"	departLane="best"	type="HV"	from=	"30"	to=	"-1"	begin="0"	end="600"	probability=	"0.000000000001"	/>
<flow	id=	"f_31"	departLane="best"	type="HV"	from=	"31"	to=	"-1"	begin="0"	end="600"	probability=	"0.00076923"	/>
<flow	id=	"f_32"	departLane="best"	type="HV"	from=	"32"	to=	"-1"	begin="0"	end="600"	probability=	"0.00076923"	/>
<flow	id=	"f_33"	departLane="best"	type="HV"	from=	"33"	to=	"-1"	begin="0"	end="600"	probability=	"0.00076923"	/>
<flow	id=	"f_34"	departLane="best"	type="HV"	from=	"34"	to=	"-1"	begin="0"	end="600"	probability=	"0.000000000001"	/>
<flow	id=	"f_35"	departLane="best"	type="HV"	from=	"35"	to=	"-1"	begin="0"	end="600"	probability=	"0.000000000001"	/>
<flow	id=	"f_36"	departLane="best"	type="HV"	from=	"36"	to=	"-1"	begin="0"	end="600"	probability=	"0.00076923"	/>
<flow	id=	"f_37"	departLane="best"	type="HV"	from=	"37"	to=	"-1"	begin="0"	end="600"	probability=	"0.00076923"	/>
<flow	id=	"f_38"	departLane="best"	type="HV"	from=	"38"	to=	"-1"	begin="0"	end="600"	probability=	"0.00076923"	/>
<flow	id=	"f_39"	departLane="best"	type="HV"	from=	"39"	to=	"-1"	begin="0"	end="600"	probability=	"0.000000000001"	/>
<flow	id=	"f_40"	departLane="best"	type="HV"	from=	"40"	to=	"-1"	begin="0"	end="600"	probability=	"0.000000000001"	/>
<flow	id=	"f_41"	departLane="best"	type="HV"	from=	"41"	to=	"-1"	begin="0"	end="600"	probability=	"0.00076923"	/>
<flow	id=	"f_42"	departLane="best"	type="HV"	from=	"42"	to=	"-1"	begin="0"	end="600"	probability=	"0.00076923"	/>
<flow	id=	"f_43"	departLane="best"	type="HV"	from=	"43"	to=	"-1"	begin="0"	end="600"	probability=	"0.00076923"	/>
<flow	id=	"f_44"	departLane="best"	type="HV"	from=	"44"	to=	"-1"	begin="0"	end="600"	probability=	"0.00076923"	/>
<flow	id=	"f_45"	departLane="best"	type="HV"	from=	"45"	to=	"-1"	begin="0"	end="600"	probability=	"0.000000000001"	/>
<flow	id=	"f_46"	departLane="best"	type="HV"	from=	"46"	to=	"-1"	begin="0"	end="600"	probability=	"0.00076923"	/>
<flow	id=	"f_47"	departLane="best"	type="HV"	from=	"47"	to=	"-1"	begin="0"	end="600"	probability=	"0.00076923"	/>
<flow	id=	"f_48"	departLane="best"	type="HV"	from=	"48"	to=	"-1"	begin="0"	end="600"	probability=	"0.00076923"	/>
<flow	id=	"f_49"	departLane="best"	type="HV"	from=	"49"	to=	"-1"	begin="0"	end="600"	probability=	"0.00076923"	/>
<flow	id=	"f_50"	departLane="best"	type="HV"	from=	"50"	to=	"-1"	begin="0"	end="600"	probability=	"0.000000000001"	/>
<flow	id=	"f_51"	departLane="best"	type="HV"	from=	"51"	to=	"-1"	begin="0"	end="600"	probability=	"0.000000000001"	/>
<flow	id=	"f_52"	departLane="best"	type="HV"	from=	"52"	to=	"-1"	begin="0"	end="600"	probability=	"0.000000000001"	/>
<flow	id=	"f_53"	departLane="best"	type="HV"	from=	"53"	to=	"-1"	begin="0"	end="600"	probability=	"0.000000000001"	/>
<flow	id=	"f_54"	departLane="best"	type="HV"	from=	"54"	to=	"-1"	begin="0"	end="600"	probability=	"0.000000000001"	/>
<flow	id=	"f_55"	departLane="best"	type="HV"	from=	"55"	to=	"-1"	begin="0"	end="600"	probability=	"0.000000000001"	/>
<flow	id=	"f_56"	departLane="best"	type="HV"	from=	"56"	to=	"-1"	begin="0"	end="600"	probability=	"0.000000000001"	/>
<flow	id=	"f_57"	departLane="best"	type="HV"	from=	"57"	to=	"-1"	begin="0"	end="600"	probability=	"0.000000000001"	/>
<flow	id=	"f_58"	departLane="best"	type="HV"	from=	"58"	to=	"-1"	begin="0"	end="600"	probability=	"0.000000000001"	/>
<flow	id=	"f_59"	departLane="best"	type="HV"	from=	"59"	to=	"-1"	begin="0"	end="600"	probability=	"0.000000000001"	/>
<flow	id=	"f_60"	departLane="best"	type="HV"	from=	"60"	to=	"-1"	begin="0"	end="600"	probability=	"0.000000000001"	/>
<flow	id=	"f_61"	departLane="best"	type="HV"	from=	"61"	to=	"-1"	begin="0"	end="600"	probability=	"0.00076923"	/>
<flow	id=	"f_62"	departLane="best"	type="HV"	from=	"62"	to=	"-1"	begin="0"	end="600"	probability=	"0.00076923"	/>
<flow	id=	"f_63"	departLane="best"	type="HV"	from=	"63"	to=	"-1"	begin="0"	end="600"	probability=	"0.00076923"	/>
<flow	id=	"f_64"	departLane="best"	type="HV"	from=	"64"	to=	"-1"	begin="0"	end="600"	probability=	"0.00076923"	/>
<flow	id=	"f_65"	departLane="best"	type="HV"	from=	"65"	to=	"-1"	begin="0"	end="600"	probability=	"0.00076923"	/>
<flow	id=	"f_66"	departLane="best"	type="HV"	from=	"66"	to=	"-1"	begin="0"	end="600"	probability=	"0.00076923"	/>
<flow	id=	"f_67"	departLane="best"	type="HV"	from=	"67"	to=	"-1"	begin="0"	end="600"	probability=	"0.00076923"	/>
<flow	id=	"f_68"	departLane="best"	type="HV"	from=	"68"	to=	"-1"	begin="0"	end="600"	probability=	"0.00076923"	/>
<flow	id=	"f_69"	departLane="best"	type="HV"	from=	"69"	to=	"-1"	begin="0"	end="600"	probability=	"0.00076923"	/>
<flow	id=	"f_70"	departLane="best"	type="HV"	from=	"70"	to=	"-1"	begin="0"	end="600"	probability=	"0.00076923"	/>
<flow	id=	"f_71"	departLane="best"	type="HV"	from=	"71"	to=	"-1"	begin="0"	end="600"	probability=	"0.00076923"	/>
<flow	id=	"f_72"	departLane="best"	type="HV"	from=	"72"	to=	"-1"	begin="0"	end="600"	probability=	"0.00076923"	/>
<flow	id=	"f_73"	departLane="best"	type="HV"	from=	"73"	to=	"-1"	begin="0"	end="600"	probability=	"0.00076923"	/>
<flow	id=	"f_74"	departLane="best"	type="HV"	from=	"74"	to=	"-1"	begin="0"	end="600"	probability=	"0.00076923"	/>
<flow	id=	"f_75"	departLane="best"	type="HV"	from=	"75"	to=	"-1"	begin="0"	end="600"	probability=	"0.00076923"	/>
<flow	id=	"f_76"	departLane="best"	type="HV"	from=	"76"	to=	"-1"	begin="0"	end="600"	probability=	"0.000000000001"	/>
<flow	id=	"f_77"	departLane="best"	type="HV"	from=	"77"	to=	"-1"	begin="0"	end="600"	probability=	"0.000000000001"	/>
<flow	id=	"f_78"	departLane="best"	type="HV"	from=	"78"	to=	"-1"	begin="0"	end="600"	probability=	"0.00076923"	/>
<flow	id=	"f_79"	departLane="best"	type="HV"	from=	"79"	to=	"-1"	begin="0"	end="600"	probability=	"0.00076923"	/>
<flow	id=	"f_80"	departLane="best"	type="HV"	from=	"80"	to=	"-1"	begin="0"	end="600"	probability=	"0.00076923"	/>
<flow	id=	"f_81"	departLane="best"	type="HV"	from=	"81"	to=	"-1"	begin="0"	end="600"	probability=	"0.000000000001"	/>
<flow	id=	"f_82"	departLane="best"	type="HV"	from=	"82"	to=	"-1"	begin="0"	end="600"	probability=	"0.000000000001"	/>
<flow	id=	"f_83"	departLane="best"	type="HV"	from=	"83"	to=	"-1"	begin="0"	end="600"	probability=	"0.00076923"	/>
<flow	id=	"f_84"	departLane="best"	type="HV"	from=	"84"	to=	"-1"	begin="0"	end="600"	probability=	"0.00076923"	/>
<flow	id=	"f_85"	departLane="best"	type="HV"	from=	"85"	to=	"-1"	begin="0"	end="600"	probability=	"0.00076923"	/>
<flow	id=	"f_86"	departLane="best"	type="HV"	from=	"86"	to=	"-1"	begin="0"	end="600"	probability=	"0.00076923"	/>
<flow	id=	"f_87"	departLane="best"	type="HV"	from=	"87"	to=	"-1"	begin="0"	end="600"	probability=	"0.00076923"	/>
<flow	id=	"f_88"	departLane="best"	type="HV"	from=	"88"	to=	"-1"	begin="0"	end="600"	probability=	"0.00076923"	/>
<flow	id=	"f_89"	departLane="best"	type="HV"	from=	"89"	to=	"-1"	begin="0"	end="600"	probability=	"0.000000000001"	/>
<flow	id=	"f_90"	departLane="best"	type="HV"	from=	"90"	to=	"-1"	begin="0"	end="600"	probability=	"0.000000000001"	/>
<flow	id=	"f_91"	departLane="best"	type="HV"	from=	"91"	to=	"-1"	begin="0"	end="600"	probability=	"0.000000000001"	/>
<flow	id=	"f_92"	departLane="best"	type="HV"	from=	"92"	to=	"-1"	begin="0"	end="600"	probability=	"0.00076923"	/>
<flow	id=	"f_93"	departLane="best"	type="HV"	from=	"93"	to=	"-1"	begin="0"	end="600"	probability=	"0.00076923"	/>
<flow	id=	"f_94"	departLane="best"	type="HV"	from=	"94"	to=	"-1"	begin="0"	end="600"	probability=	"0.00076923"	/>
<flow	id=	"f_95"	departLane="best"	type="HV"	from=	"95"	to=	"-1"	begin="0"	end="600"	probability=	"0.00076923"	/>
<flow	id=	"f_96"	departLane="best"	type="HV"	from=	"96"	to=	"-1"	begin="0"	end="600"	probability=	"0.00076923"	/>
<flow	id=	"f_97"	departLane="best"	type="HV"	from=	"97"	to=	"-1"	begin="0"	end="600"	probability=	"0.00076923"	/>
<flow	id=	"f_98"	departLane="best"	type="HV"	from=	"98"	to=	"-1"	begin="0"	end="600"	probability=	"0.00076923"	/>
<flow	id=	"f_99"	departLane="best"	type="HV"	from=	"99"	to=	"-1"	begin="0"	end="600"	probability=	"0.00076923"	/>
<flow	id=	"f_100"	departLane="best"	type="HV"	from=	"100"	to=	"-1"	begin="0"	end="600"	probability=	"0.000000000001"	/>
<flow	id=	"f_101"	departLane="best"	type="HV"	from=	"1"	to=	"-2"	begin="0"	end="600"	probability=	"0.00076923"	/>
<flow	id=	"f_102"	departLane="best"	type="HV"	from=	"2"	to=	"-2"	begin="0"	end="600"	probability=	"0.00076923"	/>
<flow	id=	"f_103"	departLane="best"	type="HV"	from=	"3"	to=	"-2"	begin="0"	end="600"	probability=	"0.00076923"	/>
<flow	id=	"f_104"	departLane="best"	type="HV"	from=	"4"	to=	"-2"	begin="0"	end="600"	probability=	"0.00076923"	/>
<flow	id=	"f_105"	departLane="best"	type="HV"	from=	"5"	to=	"-2"	begin="0"	end="600"	probability=	"0.00076923"	/>
<flow	id=	"f_106"	departLane="best"	type="HV"	from=	"6"	to=	"-2"	begin="0"	end="600"	probability=	"0.00076923"	/>
<flow	id=	"f_107"	departLane="best"	type="HV"	from=	"7"	to=	"-2"	begin="0"	end="600"	probability=	"0.00076923"	/>
<flow	id=	"f_108"	departLane="best"	type="HV"	from=	"8"	to=	"-2"	begin="0"	end="600"	probability=	"0.00076923"	/>
<flow	id=	"f_109"	departLane="best"	type="HV"	from=	"9"	to=	"-2"	begin="0"	end="600"	probability=	"0.00076923"	/>
<flow	id=	"f_110"	departLane="best"	type="HV"	from=	"10"	to=	"-2"	begin="0"	end="600"	probability=	"0.00076923"	/>
<flow	id=	"f_111"	departLane="best"	type="HV"	from=	"11"	to=	"-2"	begin="0"	end="600"	probability=	"0.00076923"	/>
<flow	id=	"f_112"	departLane="best"	type="HV"	from=	"12"	to=	"-2"	begin="0"	end="600"	probability=	"0.00076923"	/>
<flow	id=	"f_113"	departLane="best"	type="HV"	from=	"13"	to=	"-2"	begin="0"	end="600"	probability=	"0.00076923"	/>
<flow	id=	"f_114"	departLane="best"	type="HV"	from=	"14"	to=	"-2"	begin="0"	end="600"	probability=	"0.00076923"	/>
<flow	id=	"f_115"	departLane="best"	type="HV"	from=	"15"	to=	"-2"	begin="0"	end="600"	probability=	"0.00076923"	/>
<flow	id=	"f_116"	departLane="best"	type="HV"	from=	"16"	to=	"-2"	begin="0"	end="600"	probability=	"0.000000000001"	/>
<flow	id=	"f_117"	departLane="best"	type="HV"	from=	"17"	to=	"-2"	begin="0"	end="600"	probability=	"0.000000000001"	/>
<flow	id=	"f_118"	departLane="best"	type="HV"	from=	"18"	to=	"-2"	begin="0"	end="600"	probability=	"0.00076923"	/>
<flow	id=	"f_119"	departLane="best"	type="HV"	from=	"19"	to=	"-2"	begin="0"	end="600"	probability=	"0.000000000001"	/>
<flow	id=	"f_120"	departLane="best"	type="HV"	from=	"20"	to=	"-2"	begin="0"	end="600"	probability=	"0.000000000001"	/>
<flow	id=	"f_121"	departLane="best"	type="HV"	from=	"21"	to=	"-2"	begin="0"	end="600"	probability=	"0.000000000001"	/>
<flow	id=	"f_122"	departLane="best"	type="HV"	from=	"22"	to=	"-2"	begin="0"	end="600"	probability=	"0.000000000001"	/>
<flow	id=	"f_123"	departLane="best"	type="HV"	from=	"23"	to=	"-2"	begin="0"	end="600"	probability=	"0.000000000001"	/>
<flow	id=	"f_124"	departLane="best"	type="HV"	from=	"24"	to=	"-2"	begin="0"	end="600"	probability=	"0.000000000001"	/>
<flow	id=	"f_125"	departLane="best"	type="HV"	from=	"25"	to=	"-2"	begin="0"	end="600"	probability=	"0.000000000001"	/>
<flow	id=	"f_126"	departLane="best"	type="HV"	from=	"26"	to=	"-2"	begin="0"	end="600"	probability=	"0.00076923"	/>
<flow	id=	"f_127"	departLane="best"	type="HV"	from=	"27"	to=	"-2"	begin="0"	end="600"	probability=	"0.00076923"	/>
<flow	id=	"f_128"	departLane="best"	type="HV"	from=	"28"	to=	"-2"	begin="0"	end="600"	probability=	"0.00076923"	/>
<flow	id=	"f_129"	departLane="best"	type="HV"	from=	"29"	to=	"-2"	begin="0"	end="600"	probability=	"0.000000000001"	/>
<flow	id=	"f_130"	departLane="best"	type="HV"	from=	"30"	to=	"-2"	begin="0"	end="600"	probability=	"0.000000000001"	/>
<flow	id=	"f_131"	departLane="best"	type="HV"	from=	"31"	to=	"-2"	begin="0"	end="600"	probability=	"0.00076923"	/>
<flow	id=	"f_132"	departLane="best"	type="HV"	from=	"32"	to=	"-2"	begin="0"	end="600"	probability=	"0.00076923"	/>
<flow	id=	"f_133"	departLane="best"	type="HV"	from=	"33"	to=	"-2"	begin="0"	end="600"	probability=	"0.00076923"	/>
<flow	id=	"f_134"	departLane="best"	type="HV"	from=	"34"	to=	"-2"	begin="0"	end="600"	probability=	"0.000000000001"	/>
<flow	id=	"f_135"	departLane="best"	type="HV"	from=	"35"	to=	"-2"	begin="0"	end="600"	probability=	"0.000000000001"	/>
<flow	id=	"f_136"	departLane="best"	type="HV"	from=	"36"	to=	"-2"	begin="0"	end="600"	probability=	"0.00076923"	/>
<flow	id=	"f_137"	departLane="best"	type="HV"	from=	"37"	to=	"-2"	begin="0"	end="600"	probability=	"0.00076923"	/>
<flow	id=	"f_138"	departLane="best"	type="HV"	from=	"38"	to=	"-2"	begin="0"	end="600"	probability=	"0.00076923"	/>
<flow	id=	"f_139"	departLane="best"	type="HV"	from=	"39"	to=	"-2"	begin="0"	end="600"	probability=	"0.000000000001"	/>
<flow	id=	"f_140"	departLane="best"	type="HV"	from=	"40"	to=	"-2"	begin="0"	end="600"	probability=	"0.000000000001"	/>
<flow	id=	"f_141"	departLane="best"	type="HV"	from=	"41"	to=	"-2"	begin="0"	end="600"	probability=	"0.00076923"	/>
<flow	id=	"f_142"	departLane="best"	type="HV"	from=	"42"	to=	"-2"	begin="0"	end="600"	probability=	"0.00076923"	/>
<flow	id=	"f_143"	departLane="best"	type="HV"	from=	"43"	to=	"-2"	begin="0"	end="600"	probability=	"0.00076923"	/>
<flow	id=	"f_144"	departLane="best"	type="HV"	from=	"44"	to=	"-2"	begin="0"	end="600"	probability=	"0.00076923"	/>
<flow	id=	"f_145"	departLane="best"	type="HV"	from=	"45"	to=	"-2"	begin="0"	end="600"	probability=	"0.000000000001"	/>
<flow	id=	"f_146"	departLane="best"	type="HV"	from=	"46"	to=	"-2"	begin="0"	end="600"	probability=	"0.00076923"	/>
<flow	id=	"f_147"	departLane="best"	type="HV"	from=	"47"	to=	"-2"	begin="0"	end="600"	probability=	"0.00076923"	/>
<flow	id=	"f_148"	departLane="best"	type="HV"	from=	"48"	to=	"-2"	begin="0"	end="600"	probability=	"0.00076923"	/>
<flow	id=	"f_149"	departLane="best"	type="HV"	from=	"49"	to=	"-2"	begin="0"	end="600"	probability=	"0.00076923"	/>
<flow	id=	"f_150"	departLane="best"	type="HV"	from=	"50"	to=	"-2"	begin="0"	end="600"	probability=	"0.000000000001"	/>
<flow	id=	"f_151"	departLane="best"	type="HV"	from=	"51"	to=	"-2"	begin="0"	end="600"	probability=	"0.000000000001"	/>
<flow	id=	"f_152"	departLane="best"	type="HV"	from=	"52"	to=	"-2"	begin="0"	end="600"	probability=	"0.000000000001"	/>
<flow	id=	"f_153"	departLane="best"	type="HV"	from=	"53"	to=	"-2"	begin="0"	end="600"	probability=	"0.000000000001"	/>
<flow	id=	"f_154"	departLane="best"	type="HV"	from=	"54"	to=	"-2"	begin="0"	end="600"	probability=	"0.000000000001"	/>
<flow	id=	"f_155"	departLane="best"	type="HV"	from=	"55"	to=	"-2"	begin="0"	end="600"	probability=	"0.000000000001"	/>
<flow	id=	"f_156"	departLane="best"	type="HV"	from=	"56"	to=	"-2"	begin="0"	end="600"	probability=	"0.000000000001"	/>
<flow	id=	"f_157"	departLane="best"	type="HV"	from=	"57"	to=	"-2"	begin="0"	end="600"	probability=	"0.000000000001"	/>
<flow	id=	"f_158"	departLane="best"	type="HV"	from=	"58"	to=	"-2"	begin="0"	end="600"	probability=	"0.000000000001"	/>
<flow	id=	"f_159"	departLane="best"	type="HV"	from=	"59"	to=	"-2"	begin="0"	end="600"	probability=	"0.000000000001"	/>
<flow	id=	"f_160"	departLane="best"	type="HV"	from=	"60"	to=	"-2"	begin="0"	end="600"	probability=	"0.000000000001"	/>
<flow	id=	"f_161"	departLane="best"	type="HV"	from=	"61"	to=	"-2"	begin="0"	end="600"	probability=	"0.00076923"	/>
<flow	id=	"f_162"	departLane="best"	type="HV"	from=	"62"	to=	"-2"	begin="0"	end="600"	probability=	"0.00076923"	/>
<flow	id=	"f_163"	departLane="best"	type="HV"	from=	"63"	to=	"-2"	begin="0"	end="600"	probability=	"0.00076923"	/>
<flow	id=	"f_164"	departLane="best"	type="HV"	from=	"64"	to=	"-2"	begin="0"	end="600"	probability=	"0.00076923"	/>
<flow	id=	"f_165"	departLane="best"	type="HV"	from=	"65"	to=	"-2"	begin="0"	end="600"	probability=	"0.00076923"	/>
<flow	id=	"f_166"	departLane="best"	type="HV"	from=	"66"	to=	"-2"	begin="0"	end="600"	probability=	"0.00076923"	/>
<flow	id=	"f_167"	departLane="best"	type="HV"	from=	"67"	to=	"-2"	begin="0"	end="600"	probability=	"0.00076923"	/>
<flow	id=	"f_168"	departLane="best"	type="HV"	from=	"68"	to=	"-2"	begin="0"	end="600"	probability=	"0.00076923"	/>
<flow	id=	"f_169"	departLane="best"	type="HV"	from=	"69"	to=	"-2"	begin="0"	end="600"	probability=	"0.00076923"	/>
<flow	id=	"f_170"	departLane="best"	type="HV"	from=	"70"	to=	"-2"	begin="0"	end="600"	probability=	"0.00076923"	/>
<flow	id=	"f_171"	departLane="best"	type="HV"	from=	"71"	to=	"-2"	begin="0"	end="600"	probability=	"0.00076923"	/>
<flow	id=	"f_172"	departLane="best"	type="HV"	from=	"72"	to=	"-2"	begin="0"	end="600"	probability=	"0.00076923"	/>
<flow	id=	"f_173"	departLane="best"	type="HV"	from=	"73"	to=	"-2"	begin="0"	end="600"	probability=	"0.00076923"	/>
<flow	id=	"f_174"	departLane="best"	type="HV"	from=	"74"	to=	"-2"	begin="0"	end="600"	probability=	"0.00076923"	/>
<flow	id=	"f_175"	departLane="best"	type="HV"	from=	"75"	to=	"-2"	begin="0"	end="600"	probability=	"0.00076923"	/>
<flow	id=	"f_176"	departLane="best"	type="HV"	from=	"76"	to=	"-2"	begin="0"	end="600"	probability=	"0.000000000001"	/>
<flow	id=	"f_177"	departLane="best"	type="HV"	from=	"77"	to=	"-2"	begin="0"	end="600"	probability=	"0.000000000001"	/>
<flow	id=	"f_178"	departLane="best"	type="HV"	from=	"78"	to=	"-2"	begin="0"	end="600"	probability=	"0.00076923"	/>
<flow	id=	"f_179"	departLane="best"	type="HV"	from=	"79"	to=	"-2"	begin="0"	end="600"	probability=	"0.00076923"	/>
<flow	id=	"f_180"	departLane="best"	type="HV"	from=	"80"	to=	"-2"	begin="0"	end="600"	probability=	"0.00076923"	/>
<flow	id=	"f_181"	departLane="best"	type="HV"	from=	"81"	to=	"-2"	begin="0"	end="600"	probability=	"0.000000000001"	/>
<flow	id=	"f_182"	departLane="best"	type="HV"	from=	"82"	to=	"-2"	begin="0"	end="600"	probability=	"0.000000000001"	/>
<flow	id=	"f_183"	departLane="best"	type="HV"	from=	"83"	to=	"-2"	begin="0"	end="600"	probability=	"0.00076923"	/>
<flow	id=	"f_184"	departLane="best"	type="HV"	from=	"84"	to=	"-2"	begin="0"	end="600"	probability=	"0.00076923"	/>
<flow	id=	"f_185"	departLane="best"	type="HV"	from=	"85"	to=	"-2"	begin="0"	end="600"	probability=	"0.00076923"	/>
<flow	id=	"f_186"	departLane="best"	type="HV"	from=	"86"	to=	"-2"	begin="0"	end="600"	probability=	"0.00076923"	/>
<flow	id=	"f_187"	departLane="best"	type="HV"	from=	"87"	to=	"-2"	begin="0"	end="600"	probability=	"0.00076923"	/>
<flow	id=	"f_188"	departLane="best"	type="HV"	from=	"88"	to=	"-2"	begin="0"	end="600"	probability=	"0.00076923"	/>
<flow	id=	"f_189"	departLane="best"	type="HV"	from=	"89"	to=	"-2"	begin="0"	end="600"	probability=	"0.000000000001"	/>
<flow	id=	"f_190"	departLane="best"	type="HV"	from=	"90"	to=	"-2"	begin="0"	end="600"	probability=	"0.000000000001"	/>
<flow	id=	"f_191"	departLane="best"	type="HV"	from=	"91"	to=	"-2"	begin="0"	end="600"	probability=	"0.000000000001"	/>
<flow	id=	"f_192"	departLane="best"	type="HV"	from=	"92"	to=	"-2"	begin="0"	end="600"	probability=	"0.00076923"	/>
<flow	id=	"f_193"	departLane="best"	type="HV"	from=	"93"	to=	"-2"	begin="0"	end="600"	probability=	"0.00076923"	/>
<flow	id=	"f_194"	departLane="best"	type="HV"	from=	"94"	to=	"-2"	begin="0"	end="600"	probability=	"0.00076923"	/>
<flow	id=	"f_195"	departLane="best"	type="HV"	from=	"95"	to=	"-2"	begin="0"	end="600"	probability=	"0.00076923"	/>
<flow	id=	"f_196"	departLane="best"	type="HV"	from=	"96"	to=	"-2"	begin="0"	end="600"	probability=	"0.00076923"	/>
<flow	id=	"f_197"	departLane="best"	type="HV"	from=	"97"	to=	"-2"	begin="0"	end="600"	probability=	"0.00076923"	/>
<flow	id=	"f_198"	departLane="best"	type="HV"	from=	"98"	to=	"-2"	begin="0"	end="600"	probability=	"0.00076923"	/>
<flow	id=	"f_199"	departLane="best"	type="HV"	from=	"99"	to=	"-2"	begin="0"	end="600"	probability=	"0.00076923"	/>
<flow	id=	"f_200"	departLane="best"	type="HV"	from=	"100"	to=	"-2"	begin="0"	end="600"	probability=	"0.000000000001"	/>
<flow	id=	"f_201"	departLane="best"	type="HV"	from=	"1"	to=	"-3"	begin="0"	end="600"	probability=	"0.00076923"	/>
<flow	id=	"f_202"	departLane="best"	type="HV"	from=	"2"	to=	"-3"	begin="0"	end="600"	probability=	"0.00076923"	/>
<flow	id=	"f_203"	departLane="best"	type="HV"	from=	"3"	to=	"-3"	begin="0"	end="600"	probability=	"0.00076923"	/>
<flow	id=	"f_204"	departLane="best"	type="HV"	from=	"4"	to=	"-3"	begin="0"	end="600"	probability=	"0.00076923"	/>
<flow	id=	"f_205"	departLane="best"	type="HV"	from=	"5"	to=	"-3"	begin="0"	end="600"	probability=	"0.00076923"	/>
<flow	id=	"f_206"	departLane="best"	type="HV"	from=	"6"	to=	"-3"	begin="0"	end="600"	probability=	"0.00076923"	/>
<flow	id=	"f_207"	departLane="best"	type="HV"	from=	"7"	to=	"-3"	begin="0"	end="600"	probability=	"0.00076923"	/>
<flow	id=	"f_208"	departLane="best"	type="HV"	from=	"8"	to=	"-3"	begin="0"	end="600"	probability=	"0.00076923"	/>
<flow	id=	"f_209"	departLane="best"	type="HV"	from=	"9"	to=	"-3"	begin="0"	end="600"	probability=	"0.00076923"	/>
<flow	id=	"f_210"	departLane="best"	type="HV"	from=	"10"	to=	"-3"	begin="0"	end="600"	probability=	"0.00076923"	/>
<flow	id=	"f_211"	departLane="best"	type="HV"	from=	"11"	to=	"-3"	begin="0"	end="600"	probability=	"0.00076923"	/>
<flow	id=	"f_212"	departLane="best"	type="HV"	from=	"12"	to=	"-3"	begin="0"	end="600"	probability=	"0.00076923"	/>
<flow	id=	"f_213"	departLane="best"	type="HV"	from=	"13"	to=	"-3"	begin="0"	end="600"	probability=	"0.00076923"	/>
<flow	id=	"f_214"	departLane="best"	type="HV"	from=	"14"	to=	"-3"	begin="0"	end="600"	probability=	"0.00076923"	/>
<flow	id=	"f_215"	departLane="best"	type="HV"	from=	"15"	to=	"-3"	begin="0"	end="600"	probability=	"0.00076923"	/>
<flow	id=	"f_216"	departLane="best"	type="HV"	from=	"16"	to=	"-3"	begin="0"	end="600"	probability=	"0.000000000001"	/>
<flow	id=	"f_217"	departLane="best"	type="HV"	from=	"17"	to=	"-3"	begin="0"	end="600"	probability=	"0.000000000001"	/>
<flow	id=	"f_218"	departLane="best"	type="HV"	from=	"18"	to=	"-3"	begin="0"	end="600"	probability=	"0.00076923"	/>
<flow	id=	"f_219"	departLane="best"	type="HV"	from=	"19"	to=	"-3"	begin="0"	end="600"	probability=	"0.000000000001"	/>
<flow	id=	"f_220"	departLane="best"	type="HV"	from=	"20"	to=	"-3"	begin="0"	end="600"	probability=	"0.000000000001"	/>
<flow	id=	"f_221"	departLane="best"	type="HV"	from=	"21"	to=	"-3"	begin="0"	end="600"	probability=	"0.000000000001"	/>
<flow	id=	"f_222"	departLane="best"	type="HV"	from=	"22"	to=	"-3"	begin="0"	end="600"	probability=	"0.000000000001"	/>
<flow	id=	"f_223"	departLane="best"	type="HV"	from=	"23"	to=	"-3"	begin="0"	end="600"	probability=	"0.000000000001"	/>
<flow	id=	"f_224"	departLane="best"	type="HV"	from=	"24"	to=	"-3"	begin="0"	end="600"	probability=	"0.000000000001"	/>
<flow	id=	"f_225"	departLane="best"	type="HV"	from=	"25"	to=	"-3"	begin="0"	end="600"	probability=	"0.000000000001"	/>
<flow	id=	"f_226"	departLane="best"	type="HV"	from=	"26"	to=	"-3"	begin="0"	end="600"	probability=	"0.00076923"	/>
<flow	id=	"f_227"	departLane="best"	type="HV"	from=	"27"	to=	"-3"	begin="0"	end="600"	probability=	"0.00076923"	/>
<flow	id=	"f_228"	departLane="best"	type="HV"	from=	"28"	to=	"-3"	begin="0"	end="600"	probability=	"0.00076923"	/>
<flow	id=	"f_229"	departLane="best"	type="HV"	from=	"29"	to=	"-3"	begin="0"	end="600"	probability=	"0.000000000001"	/>
<flow	id=	"f_230"	departLane="best"	type="HV"	from=	"30"	to=	"-3"	begin="0"	end="600"	probability=	"0.000000000001"	/>
<flow	id=	"f_231"	departLane="best"	type="HV"	from=	"31"	to=	"-3"	begin="0"	end="600"	probability=	"0.00076923"	/>
<flow	id=	"f_232"	departLane="best"	type="HV"	from=	"32"	to=	"-3"	begin="0"	end="600"	probability=	"0.00076923"	/>
<flow	id=	"f_233"	departLane="best"	type="HV"	from=	"33"	to=	"-3"	begin="0"	end="600"	probability=	"0.00076923"	/>
<flow	id=	"f_234"	departLane="best"	type="HV"	from=	"34"	to=	"-3"	begin="0"	end="600"	probability=	"0.000000000001"	/>
<flow	id=	"f_235"	departLane="best"	type="HV"	from=	"35"	to=	"-3"	begin="0"	end="600"	probability=	"0.000000000001"	/>
<flow	id=	"f_236"	departLane="best"	type="HV"	from=	"36"	to=	"-3"	begin="0"	end="600"	probability=	"0.00076923"	/>
<flow	id=	"f_237"	departLane="best"	type="HV"	from=	"37"	to=	"-3"	begin="0"	end="600"	probability=	"0.00076923"	/>
<flow	id=	"f_238"	departLane="best"	type="HV"	from=	"38"	to=	"-3"	begin="0"	end="600"	probability=	"0.00076923"	/>
<flow	id=	"f_239"	departLane="best"	type="HV"	from=	"39"	to=	"-3"	begin="0"	end="600"	probability=	"0.000000000001"	/>
<flow	id=	"f_240"	departLane="best"	type="HV"	from=	"40"	to=	"-3"	begin="0"	end="600"	probability=	"0.000000000001"	/>
<flow	id=	"f_241"	departLane="best"	type="HV"	from=	"41"	to=	"-3"	begin="0"	end="600"	probability=	"0.00076923"	/>
<flow	id=	"f_242"	departLane="best"	type="HV"	from=	"42"	to=	"-3"	begin="0"	end="600"	probability=	"0.00076923"	/>
<flow	id=	"f_243"	departLane="best"	type="HV"	from=	"43"	to=	"-3"	begin="0"	end="600"	probability=	"0.00076923"	/>
<flow	id=	"f_244"	departLane="best"	type="HV"	from=	"44"	to=	"-3"	begin="0"	end="600"	probability=	"0.00076923"	/>
<flow	id=	"f_245"	departLane="best"	type="HV"	from=	"45"	to=	"-3"	begin="0"	end="600"	probability=	"0.000000000001"	/>
<flow	id=	"f_246"	departLane="best"	type="HV"	from=	"46"	to=	"-3"	begin="0"	end="600"	probability=	"0.00076923"	/>
<flow	id=	"f_247"	departLane="best"	type="HV"	from=	"47"	to=	"-3"	begin="0"	end="600"	probability=	"0.00076923"	/>
<flow	id=	"f_248"	departLane="best"	type="HV"	from=	"48"	to=	"-3"	begin="0"	end="600"	probability=	"0.00076923"	/>
<flow	id=	"f_249"	departLane="best"	type="HV"	from=	"49"	to=	"-3"	begin="0"	end="600"	probability=	"0.00076923"	/>
<flow	id=	"f_250"	departLane="best"	type="HV"	from=	"50"	to=	"-3"	begin="0"	end="600"	probability=	"0.000000000001"	/>
<flow	id=	"f_251"	departLane="best"	type="HV"	from=	"51"	to=	"-3"	begin="0"	end="600"	probability=	"0.000000000001"	/>
<flow	id=	"f_252"	departLane="best"	type="HV"	from=	"52"	to=	"-3"	begin="0"	end="600"	probability=	"0.000000000001"	/>
<flow	id=	"f_253"	departLane="best"	type="HV"	from=	"53"	to=	"-3"	begin="0"	end="600"	probability=	"0.000000000001"	/>