<?xml version="1.0" encoding="UTF-8"?>

<!-- generated on 2023-07-01 21:51:48 by Eclipse SUMO netedit Version 1.17.0
<configuration xmlns:xsi="http://www.w3.org/2001/XMLSchema-instance" xsi:noNamespaceSchemaLocation="http://sumo.dlr.de/xsd/netconvertConfiguration.xsd">

    <input>
        <sumo-net-file value="E:\SUMO\Expressway-urban SUMO simulation\network.net.xml"/>
    </input>

    <output>
        <output-file value="E:\SUMO\Expressway-urban SUMO simulation\network.net.xml"/>
    </output>

    <processing>
        <geometry.min-radius.fix.railways value="false"/>
        <geometry.max-grade.fix value="false"/>
        <offset.disable-normalization value="true"/>
        <lefthand value="0"/>
    </processing>

    <junctions>
        <no-turnarounds value="true"/>
        <junctions.corner-detail value="5"/>
        <junctions.limit-turn-speed value="5.50"/>
        <rectangular-lane-cut value="0"/>
    </junctions>

    <pedestrian>
        <walkingareas value="0"/>
    </pedestrian>

</configuration>
-->

<net version="1.16" junctionCornerDetail="5" limitTurnSpeed="5.50" xmlns:xsi="http://www.w3.org/2001/XMLSchema-instance" xsi:noNamespaceSchemaLocation="http://sumo.dlr.de/xsd/net_file.xsd">

    <location netOffset="0.00,0.00" convBoundary="0.00,0.00,12500.00,12500.00" origBoundary="0.00,0.00,12500.00,12500.00" projParameter="!"/>

    <edge id=":J100_0" function="internal">
        <lane id=":J100_0_0" index="0" speed="6.58" length="8.99" shape="6503.96,5763.63 6503.53,5761.17 6502.45,5759.41 6500.73,5758.35 6498.35,5758.00"/>
        <lane id=":J100_0_1" index="1" speed="8.06" length="14.01" shape="6507.15,5763.51 6506.48,5759.70 6504.79,5756.98 6502.08,5755.34 6498.35,5754.80"/>
    </edge>
    <edge id=":J100_2" function="internal">
        <lane id=":J100_2_0" index="0" speed="13.89" length="14.12" shape="6512.47,5758.00 6498.35,5758.00"/>
        <lane id=":J100_2_1" index="1" speed="13.89" length="14.12" shape="6512.47,5754.80 6498.35,5754.80"/>
        <lane id=":J100_2_2" index="2" speed="13.89" length="14.12" shape="6512.47,5751.60 6498.35,5751.60"/>
    </edge>
    <edge id=":J103_0" function="internal">
        <lane id=":J103_0_0" index="0" speed="7.42" length="8.97" shape="6013.85,6736.14 6014.99,6738.70 6016.37,6740.53 6018.00,6741.63 6019.87,6742.00"/>
        <lane id=":J103_0_1" index="1" speed="8.80" length="12.94" shape="6010.83,6737.19 6012.44,6740.69 6014.48,6743.20 6016.96,6744.70 6019.87,6745.20"/>
    </edge>
    <edge id=":J103_2" function="internal">
        <lane id=":J103_2_0" index="0" speed="13.89" length="12.46" shape="6007.41,6742.00 6019.87,6742.00"/>
        <lane id=":J103_2_1" index="1" speed="13.89" length="12.46" shape="6007.41,6745.20 6019.87,6745.20"/>
        <lane id=":J103_2_2" index="2" speed="13.89" length="12.46" shape="6007.41,6748.40 6019.87,6748.40"/>
    </edge>
    <edge id=":J104_0" function="internal">
        <lane id=":J104_0_0" index="0" speed="8.63" length="9.47" shape="6000.90,6764.03 5999.03,6761.39 5997.26,6759.51 5995.58,6758.38 5994.00,6758.00"/>
        <lane id=":J104_0_1" index="1" speed="9.90" length="12.67" shape="6003.60,6762.32 6001.21,6759.03 5998.82,6756.68 5996.41,6755.27 5994.00,6754.80"/>
    </edge>
    <edge id=":J104_2" function="internal">
        <lane id=":J104_2_0" index="0" speed="13.89" length="11.98" shape="6005.98,6758.00 5994.00,6758.00"/>
        <lane id=":J104_2_1" index="1" speed="13.89" length="11.98" shape="6005.98,6754.80 5994.00,6754.80"/>
        <lane id=":J104_2_2" index="2" speed="13.89" length="11.98" shape="6005.98,6751.60 5994.00,6751.60"/>
    </edge>
    <edge id=":J107_0" function="internal">
        <lane id=":J107_0_0" index="0" speed="6.51" length="9.03" shape="6527.42,6736.40 6527.77,6738.85 6528.82,6740.60 6530.57,6741.65 6533.02,6742.00"/>
        <lane id=":J107_0_1" index="1" speed="8.00" length="14.18" shape="6524.22,6736.40 6524.77,6740.25 6526.42,6743.00 6529.17,6744.65 6533.02,6745.20"/>
    </edge>
    <edge id=":J107_2" function="internal">
        <lane id=":J107_2_0" index="0" speed="13.89" length="14.39" shape="6518.63,6742.00 6533.02,6742.00"/>
        <lane id=":J107_2_1" index="1" speed="13.89" length="14.39" shape="6518.63,6745.20 6533.02,6745.20"/>
        <lane id=":J107_2_2" index="2" speed="13.89" length="14.39" shape="6518.63,6748.40 6533.02,6748.40"/>
    </edge>
    <edge id=":J108_0" function="internal">
        <lane id=":J108_0_0" index="0" speed="13.89" length="14.40" shape="6514.94,6758.00 6500.54,6758.00"/>
        <lane id=":J108_0_1" index="1" speed="13.89" length="14.40" shape="6514.94,6754.80 6500.54,6754.80"/>
        <lane id=":J108_0_2" index="2" speed="13.89" length="14.40" shape="6514.94,6751.60 6500.54,6751.60"/>
    </edge>
    <edge id=":J108_3" function="internal">
        <lane id=":J108_3_0" index="0" speed="6.50" length="9.03" shape="6506.13,6763.61 6505.79,6761.15 6504.74,6759.40 6503.00,6758.35 6500.54,6758.00"/>
        <lane id=":J108_3_1" index="1" speed="8.00" length="14.21" shape="6509.33,6763.62 6508.79,6759.76 6507.15,6757.00 6504.40,6755.35 6500.54,6754.80"/>
    </edge>
    <edge id=":J111_0" function="internal">
        <lane id=":J111_0_0" index="0" speed="6.59" length="8.98" shape="5763.63,7030.32 5761.17,7030.77 5759.41,7031.85 5758.35,7033.57 5758.00,7035.93"/>
        <lane id=":J111_0_1" index="1" speed="8.07" length="13.98" shape="5763.50,7027.13 5759.69,7027.82 5756.97,7029.52 5755.34,7032.22 5754.80,7035.93"/>
    </edge>
    <edge id=":J111_2" function="internal">
        <lane id=":J111_2_0" index="0" speed="13.89" length="14.07" shape="5758.00,7021.86 5758.00,7035.93"/>
        <lane id=":J111_2_1" index="1" speed="13.89" length="14.07" shape="5754.80,7021.86 5754.80,7035.93"/>
        <lane id=":J111_2_2" index="2" speed="13.89" length="14.07" shape="5751.60,7021.86 5751.60,7035.93"/>
    </edge>
    <edge id=":J112_0" function="internal">
        <lane id=":J112_0_0" index="0" speed="13.89" length="14.08" shape="5742.00,7018.84 5742.00,7004.76"/>
        <lane id=":J112_0_1" index="1" speed="13.89" length="14.08" shape="5745.20,7018.84 5745.20,7004.76"/>
        <lane id=":J112_0_2" index="2" speed="13.89" length="14.08" shape="5748.40,7018.84 5748.40,7004.76"/>
    </edge>
    <edge id=":J112_3" function="internal">
        <lane id=":J112_3_0" index="0" speed="6.59" length="8.98" shape="5736.37,7010.36 5738.83,7009.92 5740.59,7008.84 5741.65,7007.12 5742.00,7004.76"/>
        <lane id=":J112_3_1" index="1" speed="8.07" length="13.99" shape="5736.50,7013.56 5740.31,7012.87 5743.02,7011.18 5744.66,7008.47 5745.20,7004.76"/>
    </edge>
    <edge id=":J115_0" function="internal">
        <lane id=":J115_0_0" index="0" speed="6.56" length="8.99" shape="5520.53,6736.38 5520.95,6738.84 5522.02,6740.59 5523.75,6741.65 5526.13,6742.00"/>
        <lane id=":J115_0_1" index="1" speed="8.05" length="14.04" shape="5517.33,6736.47 5517.98,6740.29 5519.67,6743.02 5522.38,6744.65 5526.13,6745.20"/>
    </edge>
    <edge id=":J115_2" function="internal">
        <lane id=":J115_2_0" index="0" speed="13.89" length="14.16" shape="5511.97,6742.00 5526.13,6742.00"/>
        <lane id=":J115_2_1" index="1" speed="13.89" length="14.16" shape="5511.97,6745.20 5526.13,6745.20"/>
        <lane id=":J115_2_2" index="2" speed="13.89" length="14.16" shape="5511.97,6748.40 5526.13,6748.40"/>
    </edge>
    <edge id=":J116_0" function="internal">
        <lane id=":J116_0_0" index="0" speed="6.57" length="8.99" shape="5488.86,6763.63 5488.44,6761.17 5487.36,6759.41 5485.63,6758.35 5483.26,6758.00"/>
        <lane id=":J116_0_1" index="1" speed="8.06" length="14.02" shape="5492.06,6763.51 5491.39,6759.70 5489.70,6756.98 5486.99,6755.34 5483.26,6754.80"/>
    </edge>
    <edge id=":J116_2" function="internal">
        <lane id=":J116_2_0" index="0" speed="13.89" length="14.12" shape="5497.38,6758.00 5483.26,6758.00"/>
        <lane id=":J116_2_1" index="1" speed="13.89" length="14.12" shape="5497.38,6754.80 5483.26,6754.80"/>
        <lane id=":J116_2_2" index="2" speed="13.89" length="14.12" shape="5497.38,6751.60 5483.26,6751.60"/>
    </edge>
    <edge id=":J119_0" function="internal">
        <lane id=":J119_0_0" index="0" speed="6.52" length="9.02" shape="7025.87,6736.39 7026.24,6738.85 7027.30,6740.60 7029.04,6741.65 7031.47,6742.00"/>
        <lane id=":J119_0_1" index="1" speed="8.02" length="14.15" shape="7022.67,6736.42 7023.25,6740.26 7024.92,6743.01 7027.65,6744.65 7031.47,6745.20"/>
    </edge>
    <edge id=":J119_2" function="internal">
        <lane id=":J119_2_0" index="0" speed="13.89" length="14.33" shape="7017.15,6742.00 7031.47,6742.00"/>
        <lane id=":J119_2_1" index="1" speed="13.89" length="14.33" shape="7017.15,6745.20 7031.47,6745.20"/>
        <lane id=":J119_2_2" index="2" speed="13.89" length="14.33" shape="7017.15,6748.40 7031.47,6748.40"/>
    </edge>
    <edge id=":J120_0" function="internal">
        <lane id=":J120_0_0" index="0" speed="6.51" length="9.03" shape="6999.23,6763.60 6998.88,6761.15 6997.83,6759.40 6996.08,6758.35 6993.63,6758.00"/>
        <lane id=":J120_0_1" index="1" speed="8.00" length="14.19" shape="7002.43,6763.60 7001.87,6759.75 7000.22,6757.00 6997.47,6755.35 6993.63,6754.80"/>
    </edge>
    <edge id=":J120_2" function="internal">
        <lane id=":J120_2_0" index="0" speed="13.89" length="14.39" shape="7008.02,6758.00 6993.63,6758.00"/>
        <lane id=":J120_2_1" index="1" speed="13.89" length="14.39" shape="7008.02,6754.80 6993.63,6754.80"/>
        <lane id=":J120_2_2" index="2" speed="13.89" length="14.39" shape="7008.02,6751.60 6993.63,6751.60"/>
    </edge>
    <edge id=":J123_0" function="internal">
        <lane id=":J123_0_0" index="0" speed="6.52" length="9.02" shape="6763.61,7024.70 6761.15,7025.07 6759.40,7026.13 6758.35,7027.87 6758.00,7030.30"/>
        <lane id=":J123_0_1" index="1" speed="8.01" length="14.15" shape="6763.58,7021.50 6759.74,7022.08 6756.99,7023.74 6755.35,7026.48 6754.80,7030.30"/>
    </edge>
    <edge id=":J123_2" function="internal">
        <lane id=":J123_2_0" index="0" speed="13.89" length="14.33" shape="6758.00,7015.97 6758.00,7030.30"/>
        <lane id=":J123_2_1" index="1" speed="13.89" length="14.33" shape="6754.80,7015.97 6754.80,7030.30"/>
        <lane id=":J123_2_2" index="2" speed="13.89" length="14.33" shape="6751.60,7015.97 6751.60,7030.30"/>
    </edge>
    <edge id=":J124_0" function="internal">
        <lane id=":J124_0_0" index="0" speed="13.89" length="14.30" shape="6742.00,7011.75 6742.00,6997.45"/>
        <lane id=":J124_0_1" index="1" speed="13.89" length="14.30" shape="6745.20,7011.75 6745.20,6997.45"/>
        <lane id=":J124_0_2" index="2" speed="13.89" length="14.30" shape="6748.40,7011.75 6748.40,6997.45"/>
    </edge>
    <edge id=":J124_3" function="internal">
        <lane id=":J124_3_0" index="0" speed="6.53" length="9.01" shape="6736.39,7003.05 6738.84,7002.68 6740.60,7001.62 6741.65,6999.88 6742.00,6997.45"/>
        <lane id=":J124_3_1" index="1" speed="8.02" length="14.13" shape="6736.43,7006.25 6740.27,7005.66 6743.01,7004.00 6744.65,7001.26 6745.20,6997.45"/>
    </edge>
    <edge id=":J127_0" function="internal">
        <lane id=":J127_0_0" index="0" speed="6.50" length="9.03" shape="5517.45,5736.40 5517.79,5738.85 5518.84,5740.60 5520.59,5741.65 5523.04,5742.00"/>
        <lane id=":J127_0_1" index="1" speed="8.00" length="14.20" shape="5514.25,5736.39 5514.79,5740.24 5516.43,5743.00 5519.18,5744.65 5523.04,5745.20"/>
    </edge>
    <edge id=":J127_2" function="internal">
        <lane id=":J127_2_0" index="0" speed="13.89" length="14.40" shape="5508.64,5742.00 5523.04,5742.00"/>
        <lane id=":J127_2_1" index="1" speed="13.89" length="14.40" shape="5508.64,5745.20 5523.04,5745.20"/>
        <lane id=":J127_2_2" index="2" speed="13.89" length="14.40" shape="5508.64,5748.40 5523.04,5748.40"/>
    </edge>
    <edge id=":J128_0" function="internal">
        <lane id=":J128_0_0" index="0" speed="6.54" length="9.01" shape="5494.27,5763.62 5493.88,5761.16 5492.82,5759.40 5491.08,5758.35 5488.67,5758.00"/>
        <lane id=":J128_0_1" index="1" speed="8.03" length="14.09" shape="5497.47,5763.55 5496.86,5759.72 5495.19,5756.99 5492.46,5755.35 5488.67,5754.80"/>
    </edge>
    <edge id=":J128_2" function="internal">
        <lane id=":J128_2_0" index="0" speed="13.89" length="14.25" shape="5502.92,5758.00 5488.67,5758.00"/>
        <lane id=":J128_2_1" index="1" speed="13.89" length="14.25" shape="5502.92,5754.80 5488.67,5754.80"/>
        <lane id=":J128_2_2" index="2" speed="13.89" length="14.25" shape="5502.92,5751.60 5488.67,5751.60"/>
    </edge>
    <edge id=":J131_0" function="internal">
        <lane id=":J131_0_0" index="0" speed="6.52" length="9.02" shape="5763.61,5537.48 5761.15,5537.85 5759.40,5538.91 5758.35,5540.65 5758.00,5543.08"/>
        <lane id=":J131_0_1" index="1" speed="8.02" length="14.15" shape="5763.58,5534.28 5759.74,5534.86 5756.99,5536.52 5755.35,5539.26 5754.80,5543.08"/>
    </edge>
    <edge id=":J131_2" function="internal">
        <lane id=":J131_2_0" index="0" speed="13.89" length="14.33" shape="5758.00,5528.76 5758.00,5543.08"/>
        <lane id=":J131_2_1" index="1" speed="13.89" length="14.33" shape="5754.80,5528.76 5754.80,5543.08"/>
        <lane id=":J131_2_2" index="2" speed="13.89" length="14.33" shape="5751.60,5528.76 5751.60,5543.08"/>
    </edge>
    <edge id=":J132_0" function="internal">
        <lane id=":J132_0_0" index="0" speed="13.89" length="14.40" shape="5742.00,5525.72 5742.00,5511.32"/>
        <lane id=":J132_0_1" index="1" speed="13.89" length="14.40" shape="5745.20,5525.72 5745.20,5511.32"/>
        <lane id=":J132_0_2" index="2" speed="13.89" length="14.40" shape="5748.40,5525.72 5748.40,5511.32"/>
    </edge>
    <edge id=":J132_3" function="internal">
        <lane id=":J132_3_0" index="0" speed="6.50" length="9.03" shape="5736.39,5516.90 5738.85,5516.56 5740.60,5515.52 5741.65,5513.77 5742.00,5511.32"/>
        <lane id=":J132_3_1" index="1" speed="7.99" length="14.21" shape="5736.38,5520.10 5740.24,5519.57 5742.99,5517.92 5744.65,5515.17 5745.20,5511.32"/>
    </edge>
    <edge id=":J135_0" function="internal">
        <lane id=":J135_0_0" index="0" speed="6.51" length="9.03" shape="7014.75,5736.40 7015.10,5738.85 7016.16,5740.60 7017.90,5741.65 7020.35,5742.00"/>
        <lane id=":J135_0_1" index="1" speed="8.01" length="14.18" shape="7011.55,5736.41 7012.11,5740.25 7013.76,5743.00 7016.51,5744.65 7020.35,5745.20"/>
    </edge>
    <edge id=":J135_2" function="internal">
        <lane id=":J135_2_0" index="0" speed="13.89" length="14.37" shape="7005.97,5742.00 7020.35,5742.00"/>
        <lane id=":J135_2_1" index="1" speed="13.89" length="14.37" shape="7005.97,5745.20 7020.35,5745.20"/>
        <lane id=":J135_2_2" index="2" speed="13.89" length="14.37" shape="7005.97,5748.40 7020.35,5748.40"/>
    </edge>
    <edge id=":J136_0" function="internal">
        <lane id=":J136_0_0" index="0" speed="6.52" length="9.02" shape="6991.92,5763.61 6991.55,5761.15 6990.50,5759.40 6988.75,5758.35 6986.32,5758.00"/>
        <lane id=":J136_0_1" index="1" speed="8.01" length="14.16" shape="6995.12,5763.58 6994.54,5759.74 6992.89,5757.00 6990.14,5755.35 6986.32,5754.80"/>
    </edge>
    <edge id=":J136_2" function="internal">
        <lane id=":J136_2_0" index="0" speed="13.89" length="14.34" shape="7000.66,5758.00 6986.32,5758.00"/>
        <lane id=":J136_2_1" index="1" speed="13.89" length="14.34" shape="7000.66,5754.80 6986.32,5754.80"/>
        <lane id=":J136_2_2" index="2" speed="13.89" length="14.34" shape="7000.66,5751.60 6986.32,5751.60"/>
    </edge>
    <edge id=":J139_0" function="internal">
        <lane id=":J139_0_0" index="0" speed="6.55" length="9.00" shape="6763.62,5532.59 6761.16,5532.98 6759.40,5534.05 6758.35,5535.78 6758.00,5538.19"/>
        <lane id=":J139_0_1" index="1" speed="8.03" length="14.09" shape="6763.55,5529.39 6759.72,5530.01 6756.99,5531.68 6755.35,5534.41 6754.80,5538.19"/>
    </edge>
    <edge id=":J139_2" function="internal">
        <lane id=":J139_2_0" index="0" speed="13.89" length="14.24" shape="6758.00,5523.95 6758.00,5538.19"/>
        <lane id=":J139_2_1" index="1" speed="13.89" length="14.24" shape="6754.80,5523.95 6754.80,5538.19"/>
        <lane id=":J139_2_2" index="2" speed="13.89" length="14.24" shape="6751.60,5523.95 6751.60,5538.19"/>
    </edge>
    <edge id=":J140_0" function="internal">
        <lane id=":J140_0_0" index="0" speed="13.89" length="14.19" shape="6742.00,5512.82 6742.00,5498.64"/>
        <lane id=":J140_0_1" index="1" speed="13.89" length="14.19" shape="6745.20,5512.82 6745.20,5498.64"/>
        <lane id=":J140_0_2" index="2" speed="13.89" length="14.19" shape="6748.40,5512.82 6748.40,5498.64"/>
    </edge>
    <edge id=":J140_3" function="internal">
        <lane id=":J140_3_0" index="0" speed="6.56" length="9.00" shape="6736.38,5504.24 6738.84,5503.83 6740.59,5502.76 6741.65,5501.03 6742.00,5498.64"/>
        <lane id=":J140_3_1" index="1" speed="8.04" length="14.06" shape="6736.47,5507.44 6740.29,5506.80 6743.02,5505.12 6744.65,5502.40 6745.20,5498.64"/>
    </edge>
    <edge id=":J194_0" function="internal">
        <lane id=":J194_0_0" index="0" speed="6.54" length="9.01" shape="6263.61,7028.94 6261.16,7029.33 6259.40,7030.39 6258.35,7032.13 6258.00,7034.54"/>
        <lane id=":J194_0_1" index="1" speed="8.03" length="14.11" shape="6263.56,7025.74 6259.73,7026.35 6256.99,7028.01 6255.35,7030.75 6254.80,7034.54"/>
    </edge>
    <edge id=":J194_2" function="internal">
        <lane id=":J194_2_0" index="0" speed="13.89" length="14.27" shape="6258.00,7020.27 6258.00,7034.54"/>
        <lane id=":J194_2_1" index="1" speed="13.89" length="14.27" shape="6254.80,7020.27 6254.80,7034.54"/>
        <lane id=":J194_2_2" index="2" speed="13.89" length="14.27" shape="6251.60,7020.27 6251.60,7034.54"/>
    </edge>
    <edge id=":J195_0" function="internal">
        <lane id=":J195_0_0" index="0" speed="13.89" length="14.40" shape="6242.00,7021.50 6242.00,7007.10"/>
        <lane id=":J195_0_1" index="1" speed="13.89" length="14.40" shape="6245.20,7021.50 6245.20,7007.10"/>
        <lane id=":J195_0_2" index="2" speed="13.89" length="14.40" shape="6248.40,7021.50 6248.40,7007.10"/>
    </edge>
    <edge id=":J195_3" function="internal">
        <lane id=":J195_3_0" index="0" speed="6.49" length="9.03" shape="6236.39,7012.67 6238.84,7012.34 6240.60,7011.30 6241.65,7009.55 6242.00,7007.10"/>
        <lane id=":J195_3_1" index="1" speed="7.99" length="14.22" shape="6236.36,7015.87 6240.23,7015.35 6242.99,7013.71 6244.65,7010.96 6245.20,7007.10"/>
    </edge>
    <edge id=":J198_0" function="internal">
        <lane id=":J198_0_0" index="0" speed="6.52" length="9.02" shape="7019.89,6236.40 7020.25,6238.85 7021.30,6240.60 7023.05,6241.65 7025.49,6242.00"/>
        <lane id=":J198_0_1" index="1" speed="8.01" length="14.16" shape="7016.69,6236.41 7017.25,6240.26 7018.91,6243.00 7021.65,6244.65 7025.49,6245.20"/>
    </edge>
    <edge id=":J198_2" function="internal">
        <lane id=":J198_2_0" index="0" speed="13.89" length="14.36" shape="7011.13,6242.00 7025.49,6242.00"/>
        <lane id=":J198_2_1" index="1" speed="13.89" length="14.36" shape="7011.13,6245.20 7025.49,6245.20"/>
        <lane id=":J198_2_2" index="2" speed="13.89" length="14.36" shape="7011.13,6248.40 7025.49,6248.40"/>
    </edge>
    <edge id=":J199_0" function="internal">
        <lane id=":J199_0_0" index="0" speed="6.55" length="9.00" shape="7001.83,6263.62 7001.43,6261.16 7000.36,6259.40 6998.63,6258.35 6996.22,6258.00"/>
        <lane id=":J199_0_1" index="1" speed="8.04" length="14.08" shape="7005.03,6263.55 7004.40,6259.72 7002.73,6256.99 7000.00,6255.35 6996.22,6254.80"/>
    </edge>
    <edge id=":J199_2" function="internal">
        <lane id=":J199_2_0" index="0" speed="13.89" length="14.23" shape="7010.45,6258.00 6996.22,6258.00"/>
        <lane id=":J199_2_1" index="1" speed="13.89" length="14.23" shape="7010.45,6254.80 6996.22,6254.80"/>
        <lane id=":J199_2_2" index="2" speed="13.89" length="14.23" shape="7010.45,6251.60 6996.22,6251.60"/>
    </edge>
    <edge id=":J202_0" function="internal">
        <lane id=":J202_0_0" index="0" speed="13.89" length="14.40" shape="6242.00,5519.16 6242.00,5504.76"/>
        <lane id=":J202_0_1" index="1" speed="13.89" length="14.40" shape="6245.20,5519.16 6245.20,5504.76"/>
        <lane id=":J202_0_2" index="2" speed="13.89" length="14.40" shape="6248.40,5519.16 6248.40,5504.76"/>
    </edge>
    <edge id=":J202_3" function="internal">
        <lane id=":J202_3_0" index="0" speed="6.45" length="9.03" shape="6236.36,5510.25 6238.83,5509.96 6240.59,5508.95 6241.65,5507.22 6242.00,5504.76"/>
        <lane id=":J202_3_1" index="1" speed="7.95" length="14.30" shape="6236.27,5513.45 6240.18,5513.00 6242.97,5511.40 6244.64,5508.65 6245.20,5504.76"/>
    </edge>
    <edge id=":J203_0" function="internal">
        <lane id=":J203_0_0" index="0" speed="6.49" length="9.03" shape="6263.62,5530.04 6261.16,5530.36 6259.40,5531.40 6258.35,5533.14 6258.00,5535.60"/>
        <lane id=":J203_0_1" index="1" speed="7.98" length="14.23" shape="6263.65,5526.84 6259.78,5527.35 6257.01,5528.98 6255.35,5531.73 6254.80,5535.60"/>
    </edge>
    <edge id=":J203_2" function="internal">
        <lane id=":J203_2_0" index="0" speed="13.89" length="14.40" shape="6258.00,5521.20 6258.00,5535.60"/>
        <lane id=":J203_2_1" index="1" speed="13.89" length="14.40" shape="6254.80,5521.20 6254.80,5535.60"/>
        <lane id=":J203_2_2" index="2" speed="13.89" length="14.40" shape="6251.60,5521.20 6251.60,5535.60"/>
    </edge>
    <edge id=":J206_0" function="internal">
        <lane id=":J206_0_0" index="0" speed="6.55" length="9.00" shape="5513.05,6236.38 5513.46,6238.84 5514.52,6240.60 5516.26,6241.65 5518.66,6242.00"/>
        <lane id=":J206_0_1" index="1" speed="8.04" length="14.07" shape="5509.86,6236.46 5510.49,6240.28 5512.16,6243.01 5514.89,6244.65 5518.66,6245.20"/>
    </edge>
    <edge id=":J206_2" function="internal">
        <lane id=":J206_2_0" index="0" speed="13.89" length="14.21" shape="5504.45,6242.00 5518.66,6242.00"/>
        <lane id=":J206_2_1" index="1" speed="13.89" length="14.21" shape="5504.45,6245.20 5518.66,6245.20"/>
        <lane id=":J206_2_2" index="2" speed="13.89" length="14.21" shape="5504.45,6248.40 5518.66,6248.40"/>
    </edge>
    <edge id=":J207_0" function="internal">
        <lane id=":J207_0_0" index="0" speed="6.54" length="9.01" shape="5490.88,6263.61 5490.50,6261.16 5489.43,6259.40 5487.70,6258.35 5485.28,6258.00"/>
        <lane id=":J207_0_1" index="1" speed="8.03" length="14.11" shape="5494.08,6263.56 5493.48,6259.73 5491.81,6256.99 5489.08,6255.35 5485.28,6254.80"/>
    </edge>
    <edge id=":J207_2" function="internal">
        <lane id=":J207_2_0" index="0" speed="13.89" length="14.27" shape="5499.55,6258.00 5485.28,6258.00"/>
        <lane id=":J207_2_1" index="1" speed="13.89" length="14.27" shape="5499.55,6254.80 5485.28,6254.80"/>
        <lane id=":J207_2_2" index="2" speed="13.89" length="14.27" shape="5499.55,6251.60 5485.28,6251.60"/>
    </edge>
    <edge id=":J210_0" function="internal">
        <lane id=":J210_0_0" index="0" speed="13.89" length="0.58" shape="5957.21,6211.41 5957.46,6211.27 5957.63,6211.18 5957.81,6211.09 5958.08,6210.98"/>
        <lane id=":J210_0_1" index="1" speed="13.89" length="0.58" shape="5958.79,6214.19 5958.94,6214.10 5959.05,6214.05 5959.16,6214.00 5959.31,6213.93"/>
        <lane id=":J210_0_2" index="2" speed="13.89" length="0.58" shape="5960.38,6216.97 5960.43,6216.94 5960.46,6216.92 5960.50,6216.91 5960.55,6216.88"/>
    </edge>
    <edge id=":J211_0" function="internal">
        <lane id=":J211_0_0" index="0" speed="13.89" length="39.78" shape="6267.60,5886.45 6268.33,5898.64 6270.69,5907.49 6274.90,5914.85 6281.21,5922.52"/>
        <lane id=":J211_0_1" index="1" speed="13.89" length="42.07" shape="6264.40,5886.45 6265.26,5899.44 6267.89,5908.97 6272.38,5916.79 6278.81,5924.64"/>
        <lane id=":J211_0_2" index="2" speed="13.89" length="44.35" shape="6261.20,5886.45 6262.18,5900.25 6265.09,5910.45 6269.85,5918.73 6276.40,5926.75"/>
    </edge>
    <edge id=":J211_3" function="internal">
        <lane id=":J211_3_0" index="0" speed="13.89" length="43.62" shape="6258.00,5886.45 6258.00,5930.07"/>
        <lane id=":J211_3_1" index="1" speed="13.89" length="43.62" shape="6254.80,5886.45 6254.80,5930.07"/>
        <lane id=":J211_3_2" index="2" speed="13.89" length="43.62" shape="6251.60,5886.45 6251.60,5930.07"/>
    </edge>
    <edge id=":J212_0" function="internal">
        <lane id=":J212_0_0" index="0" speed="13.89" length="0.13" shape="6290.92,5933.56 6291.06,5933.72"/>
        <lane id=":J212_0_1" index="1" speed="13.89" length="0.13" shape="6288.51,5935.67 6288.60,5935.77"/>
        <lane id=":J212_0_2" index="2" speed="13.89" length="0.13" shape="6286.11,5937.78 6286.14,5937.82"/>
    </edge>
    <edge id=":J213_0" function="internal">
        <lane id=":J213_0_0" index="0" speed="13.89" length="39.99" shape="6232.40,6614.38 6231.76,6602.05 6229.70,6593.03 6226.01,6585.40 6220.45,6577.19"/>
        <lane id=":J213_0_1" index="1" speed="13.89" length="41.96" shape="6235.60,6614.38 6234.87,6601.34 6232.60,6591.74 6228.70,6583.69 6223.06,6575.33"/>
        <lane id=":J213_0_2" index="2" speed="13.89" length="43.94" shape="6238.80,6614.38 6237.97,6600.64 6235.50,6590.44 6231.40,6581.98 6225.66,6573.46"/>
    </edge>
    <edge id=":J213_3" function="internal">
        <lane id=":J213_3_0" index="0" speed="13.89" length="43.08" shape="6242.00,6614.38 6242.00,6571.30"/>
        <lane id=":J213_3_1" index="1" speed="13.89" length="43.08" shape="6245.20,6614.38 6245.20,6571.30"/>
        <lane id=":J213_3_2" index="2" speed="13.89" length="43.08" shape="6248.40,6614.38 6248.40,6571.30"/>
    </edge>
    <edge id=":J214_0" function="internal">
        <lane id=":J214_0_0" index="0" speed="13.89" length="0.51" shape="6214.63,6569.06 6214.60,6569.02 6214.58,6568.99 6214.56,6568.97 6214.53,6568.93"/>
        <lane id=":J214_0_1" index="1" speed="13.89" length="0.51" shape="6217.23,6567.20 6217.15,6567.08 6217.08,6566.99 6217.02,6566.92 6216.92,6566.80"/>
        <lane id=":J214_0_2" index="2" speed="13.89" length="0.51" shape="6219.84,6565.34 6219.69,6565.13 6219.58,6564.99 6219.47,6564.86 6219.31,6564.67"/>
    </edge>
    <edge id=":J215_0" function="internal">
        <lane id=":J215_0_0" index="0" speed="13.89" length="40.24" shape="6610.61,6267.60 6598.04,6268.00 6588.78,6269.31 6580.66,6271.70 6571.51,6275.34"/>
        <lane id=":J215_0_1" index="1" speed="13.89" length="41.49" shape="6610.61,6264.40 6597.59,6264.84 6587.94,6266.23 6579.54,6268.71 6570.29,6272.39"/>
        <lane id=":J215_0_2" index="2" speed="13.89" length="42.73" shape="6610.61,6261.20 6597.13,6261.68 6587.09,6263.15 6578.43,6265.71 6569.07,6269.43"/>
    </edge>
    <edge id=":J215_3" function="internal">
        <lane id=":J215_3_0" index="0" speed="13.89" length="41.90" shape="6610.61,6258.00 6568.71,6258.00"/>
        <lane id=":J215_3_1" index="1" speed="13.89" length="41.90" shape="6610.61,6254.80 6568.71,6254.80"/>
        <lane id=":J215_3_2" index="2" speed="13.89" length="41.90" shape="6610.61,6251.60 6568.71,6251.60"/>
    </edge>
    <edge id=":J216_0" function="internal">
        <lane id=":J216_0_0" index="0" speed="13.89" length="0.35" shape="6544.25,6286.68 6544.15,6286.73"/>
        <lane id=":J216_0_1" index="1" speed="13.89" length="0.35" shape="6543.02,6283.73 6542.71,6283.87"/>
        <lane id=":J216_0_2" index="2" speed="13.89" length="0.35" shape="6541.79,6280.77 6541.27,6281.01"/>
    </edge>
    <edge id=":J225_0" function="internal">
        <lane id=":J225_0_0" index="0" speed="6.51" length="9.03" shape="5527.86,7236.40 5528.21,7238.85 5529.27,7240.60 5531.01,7241.65 5533.46,7242.00"/>
        <lane id=":J225_0_1" index="1" speed="8.01" length="14.18" shape="5524.66,7236.41 5525.22,7240.25 5526.87,7243.00 5529.62,7244.65 5533.46,7245.20"/>
    </edge>
    <edge id=":J225_2" function="internal">
        <lane id=":J225_2_0" index="0" speed="13.89" length="14.38" shape="5519.08,7242.00 5533.46,7242.00"/>
        <lane id=":J225_2_1" index="1" speed="13.89" length="14.38" shape="5519.08,7245.20 5533.46,7245.20"/>
        <lane id=":J225_2_2" index="2" speed="13.89" length="14.38" shape="5519.08,7248.40 5533.46,7248.40"/>
    </edge>
    <edge id=":J226_0" function="internal">
        <lane id=":J226_0_0" index="0" speed="13.89" length="14.40" shape="5513.12,7258.00 5498.72,7258.00"/>
        <lane id=":J226_0_1" index="1" speed="13.89" length="14.40" shape="5513.12,7254.80 5498.72,7254.80"/>
        <lane id=":J226_0_2" index="2" speed="13.89" length="14.40" shape="5513.12,7251.60 5498.72,7251.60"/>
    </edge>
    <edge id=":J226_3" function="internal">
        <lane id=":J226_3_0" index="0" speed="6.50" length="9.03" shape="5504.30,7263.61 5503.96,7261.15 5502.92,7259.40 5501.17,7258.35 5498.72,7258.00"/>
        <lane id=":J226_3_1" index="1" speed="8.00" length="14.21" shape="5507.50,7263.62 5506.96,7259.76 5505.32,7257.00 5502.57,7255.35 5498.72,7254.80"/>
    </edge>
    <edge id=":J229_0" function="internal">
        <lane id=":J229_0_0" index="0" speed="6.52" length="9.03" shape="6029.12,7236.40 6029.48,7238.85 6030.53,7240.60 6032.28,7241.65 6034.72,7242.00"/>